psse/psse-converter/src/test/resources/remoteControl.xiidm
<?xml version="1.0" encoding="UTF-8"?>
<iidm:network xmlns:iidm="http://www.powsybl.org/schema/iidm/1_18" xmlns:slt="http://www.powsybl.org/schema/iidm/ext/slack_terminal/1_5" id="remoteControl" caseDate="2016-01-01T10:00:00.000+02:00" forecastDistance="0" sourceFormat="PSS/E" minimumValidationLevel="STEADY_STATE_HYPOTHESIS">
    <iidm:substation id="S1">
        <iidm:voltageLevel id="VL1" nominalV="230.0" topologyKind="BUS_BREAKER">
            <iidm:busBreakerTopology>
                <iidm:bus id="B1" name="Bus 1" v="243.8" angle="0.0"/>
            </iidm:busBreakerTopology>
            <iidm:generator id="B1-G1" energySource="OTHER" minP="0.0" maxP="464.8" targetP="180.52" localTargetV="243.8" localTargetQ="-2.21" bus="B1" connectableBus="B1">
                <iidm:minMaxReactiveLimits minQ="0.0" maxQ="0.0"/>
            </iidm:generator>
        </iidm:voltageLevel>
    </iidm:substation>
    <iidm:substation id="S2">
        <iidm:voltageLevel id="VL2" nominalV="230.0" topologyKind="BUS_BREAKER">
            <iidm:busBreakerTopology>
                <iidm:bus id="B2" name="Bus 2" v="240.35" angle="-3.91953266"/>
            </iidm:busBreakerTopology>
            <iidm:generator id="B2-G1" energySource="OTHER" minP="0.0" maxP="80.0" targetP="40.0" localTargetV="240.35" localTargetQ="23.74" bus="B2" connectableBus="B2">
                <iidm:minMaxReactiveLimits minQ="-40.0" maxQ="50.0"/>
                <iidm:voltageRegulation mode="VOLTAGE" regulating="true"/>
            </iidm:generator>
            <iidm:load id="B2-L1" loadType="UNDEFINED" p0="21.7" q0="12.7" bus="B2" connectableBus="B2"/>
        </iidm:voltageLevel>
    </iidm:substation>
    <iidm:substation id="S3">
        <iidm:voltageLevel id="VL3" nominalV="230.0" topologyKind="BUS_BREAKER">
            <iidm:busBreakerTopology>
                <iidm:bus id="B3" name="Bus 3" v="232.3" angle="-10.89084078"/>
            </iidm:busBreakerTopology>
            <iidm:generator id="B3-G1" energySource="OTHER" minP="0.0" maxP="-0.0" targetP="0.0" localTargetV="232.3" localTargetQ="4.31" bus="B3" connectableBus="B3">
                <iidm:minMaxReactiveLimits minQ="-40.0" maxQ="40.0"/>
                <iidm:voltageRegulation mode="VOLTAGE" regulating="true"/>
            </iidm:generator>
            <iidm:load id="B3-L1" loadType="UNDEFINED" p0="94.2" q0="19.0" bus="B3" connectableBus="B3"/>
        </iidm:voltageLevel>
    </iidm:substation>
    <iidm:substation id="S4-7-8-9">
        <iidm:voltageLevel id="VL4" nominalV="230.0" topologyKind="BUS_BREAKER">
            <iidm:busBreakerTopology>
                <iidm:bus id="B4" name="Bus 4" v="241.7431077" angle="-8.57388999"/>
            </iidm:busBreakerTopology>
            <iidm:load id="B4-L1" loadType="UNDEFINED" p0="47.8" q0="-3.9" bus="B4" connectableBus="B4"/>
        </iidm:voltageLevel>
        <iidm:voltageLevel id="VL7-8" nominalV="110.0" topologyKind="BUS_BREAKER">
            <iidm:busBreakerTopology>
                <iidm:bus id="B7" name="Bus 7" v="149.4753227" angle="-8.57388999"/>
                <iidm:bus id="B8" name="Bus 8" v="122.13161290000001" angle="-15.7635741"/>
            </iidm:busBreakerTopology>
            <iidm:load id="B8-L1" loadType="UNDEFINED" p0="7.6" q0="1.6" bus="B8" connectableBus="B8"/>
            <iidm:shuntCompensator id="B7-SwSH1" sectionCount="2" bus="B7" connectableBus="B7">
                <iidm:shuntNonLinearModel>
                    <iidm:section b="0.0" g="0.0"/>
                    <iidm:section b="0.008264462809917356" g="0.0"/>
                </iidm:shuntNonLinearModel>
                <iidm:voltageRegulation targetValue="228.85" targetDeadband="2.3000000000000114" mode="VOLTAGE" regulating="true">
                    <iidm:terminalRef id="B4-L1"/>
                </iidm:voltageRegulation>
            </iidm:shuntCompensator>
        </iidm:voltageLevel>
        <iidm:voltageLevel id="VL9" nominalV="20.0" topologyKind="BUS_BREAKER">
            <iidm:busBreakerTopology>
                <iidm:bus id="B9" name="Bus 9" v="23.8083726" angle="-20.324152"/>
            </iidm:busBreakerTopology>
            <iidm:load id="B9-L1" loadType="UNDEFINED" p0="19.5" q0="16.6" bus="B9" connectableBus="B9"/>
            <iidm:shuntCompensator id="B9-SH1" sectionCount="1" bus="B9" connectableBus="B9">
                <iidm:shuntLinearModel bPerSection="0.0475" gPerSection="0.0" maximumSectionCount="1"/>
            </iidm:shuntCompensator>
        </iidm:voltageLevel>
        <iidm:twoWindingsTransformer id="T-4-7-1" r="0.0" x="25.30352" ratedU1="230.0" ratedU2="110.0" voltageLevelId1="VL4" bus1="B4" connectableBus1="B4" voltageLevelId2="VL7-8" bus2="B7" connectableBus2="B7" selectedOperationalLimitsGroupIds1="DEFAULT" selectedOperationalLimitsGroupIds2="DEFAULT">
            <iidm:ratioTapChanger tapPosition="0" loadTapChangingCapabilities="false">
                <iidm:step g="-4.3515999999999995" b="-4.3515999999999995" rho="1.0224948875255624"/>
            </iidm:ratioTapChanger>
            <iidm:operationalLimitsGroup1 id="DEFAULT">
                <iidm:currentLimits detectionKind="HIGH" permanentLimit="25099.675398378557"/>
            </iidm:operationalLimitsGroup1>
            <iidm:operationalLimitsGroup2 id="DEFAULT">
                <iidm:currentLimits detectionKind="HIGH" permanentLimit="52481.13946933699"/>
            </iidm:operationalLimitsGroup2>
        </iidm:twoWindingsTransformer>
        <iidm:twoWindingsTransformer id="T-4-8-1" r="0.0" x="67.29778" ratedU1="230.0" ratedU2="110.0" voltageLevelId1="VL4" bus1="B4" connectableBus1="B4" voltageLevelId2="VL7-8" bus2="B8" connectableBus2="B8" selectedOperationalLimitsGroupIds1="DEFAULT" selectedOperationalLimitsGroupIds2="DEFAULT">
            <iidm:ratioTapChanger tapPosition="0" loadTapChangingCapabilities="true">
                <iidm:step g="-6.1039000000000065" b="-6.1039000000000065" rho="1.0319917440660475"/>
                <iidm:step g="-3.960000000000008" b="-3.960000000000008" rho="1.0204081632653061"/>
                <iidm:step g="-3.0869135802469083" b="-3.0869135802469083" rho="1.0158013544018059"/>
                <iidm:step g="-2.2098765432098655" b="-2.2098765432098655" rho="1.0112359550561798"/>
                <iidm:step g="-1.3288888888889017" b="-1.3288888888889017" rho="1.0067114093959733"/>
                <iidm:step g="-0.44395061728395024" b="-0.44395061728395024" rho="1.0022271714922049"/>
                <iidm:step g="0.44493827160492216" b="0.44493827160492216" rho="0.9977827050997784"/>
                <iidm:step g="1.337777777777771" b="1.337777777777771" rho="0.9933774834437087"/>
                <iidm:step g="2.234567901234552" b="2.234567901234552" rho="0.989010989010989"/>
                <iidm:step g="3.1353086419753096" b="3.1353086419753096" rho="0.9846827133479212"/>
                <iidm:step g="4.039999999999999" b="4.039999999999999" rho="0.9803921568627451"/>
                <iidm:voltageRegulation mode="VOLTAGE" regulating="true" targetValue="20.2" targetDeadband="0.3999999999999986">
                    <iidm:terminalRef id="B9-L1"/>
                </iidm:voltageRegulation>
            </iidm:ratioTapChanger>
            <iidm:operationalLimitsGroup1 id="DEFAULT">
                <iidm:currentLimits detectionKind="HIGH" permanentLimit="25099.675398378557"/>
            </iidm:operationalLimitsGroup1>
            <iidm:operationalLimitsGroup2 id="DEFAULT">
                <iidm:currentLimits detectionKind="HIGH" permanentLimit="52481.13946933699"/>
            </iidm:operationalLimitsGroup2>
        </iidm:twoWindingsTransformer>
        <iidm:twoWindingsTransformer id="T-8-9-1" r="0.0" x="2.22472" ratedU1="110.0" ratedU2="20.0" voltageLevelId1="VL7-8" bus1="B8" connectableBus1="B8" voltageLevelId2="VL9" bus2="B9" connectableBus2="B9" selectedOperationalLimitsGroupIds1="DEFAULT" selectedOperationalLimitsGroupIds2="DEFAULT">
            <iidm:ratioTapChanger tapPosition="0" loadTapChangingCapabilities="false">
                <iidm:step g="-6.1039000000000065" b="-6.1039000000000065" rho="1.0319917440660475"/>
            </iidm:ratioTapChanger>
            <iidm:operationalLimitsGroup1 id="DEFAULT">
                <iidm:currentLimits detectionKind="HIGH" permanentLimit="52481.13946933699"/>
            </iidm:operationalLimitsGroup1>
            <iidm:operationalLimitsGroup2 id="DEFAULT">
                <iidm:currentLimits detectionKind="HIGH" permanentLimit="288646.2670813534"/>
            </iidm:operationalLimitsGroup2>
        </iidm:twoWindingsTransformer>
    </iidm:substation>
    <iidm:substation id="S5-6">
        <iidm:voltageLevel id="VL5" nominalV="230.0" topologyKind="BUS_BREAKER">
            <iidm:busBreakerTopology>
                <iidm:bus id="B5" name="Bus 5" v="232.3" angle="-6.28249254"/>
            </iidm:busBreakerTopology>
            <iidm:load id="B5-L1" loadType="UNDEFINED" p0="7.6" q0="1.6" bus="B5" connectableBus="B5"/>
        </iidm:voltageLevel>
        <iidm:voltageLevel id="VL6" nominalV="110.0" topologyKind="BUS_BREAKER">
            <iidm:busBreakerTopology>
                <iidm:bus id="B6" name="Bus 6" v="84.1782931" angle="-8.23300073"/>
            </iidm:busBreakerTopology>
            <iidm:generator id="B6-G1" energySource="OTHER" minP="0.0" maxP="-0.0" targetP="0.0" localTargetQ="-89.0" bus="B6" connectableBus="B6">
                <iidm:minMaxReactiveLimits minQ="-100.0" maxQ="24.0"/>
                <iidm:voltageRegulation targetValue="232.3" mode="VOLTAGE" regulating="true">
                    <iidm:terminalRef id="B5-L1"/>
                </iidm:voltageRegulation>
            </iidm:generator>
            <iidm:load id="B6-L1" loadType="UNDEFINED" p0="11.2" q0="7.5" bus="B6" connectableBus="B6"/>
        </iidm:voltageLevel>
        <iidm:twoWindingsTransformer id="T-5-6-1" r="0.0" x="30.49442" ratedU1="230.0" ratedU2="110.0" voltageLevelId1="VL5" bus1="B5" connectableBus1="B5" voltageLevelId2="VL6" bus2="B6" connectableBus2="B6" selectedOperationalLimitsGroupIds1="DEFAULT" selectedOperationalLimitsGroupIds2="DEFAULT">
            <iidm:ratioTapChanger tapPosition="0" loadTapChangingCapabilities="false">
                <iidm:step g="-13.137599999999994" b="-13.137599999999994" rho="1.0729613733905579"/>
            </iidm:ratioTapChanger>
            <iidm:operationalLimitsGroup1 id="DEFAULT">
                <iidm:currentLimits detectionKind="HIGH" permanentLimit="25099.675398378557"/>
            </iidm:operationalLimitsGroup1>
            <iidm:operationalLimitsGroup2 id="DEFAULT">
                <iidm:currentLimits detectionKind="HIGH" permanentLimit="52481.13946933699"/>
            </iidm:operationalLimitsGroup2>
        </iidm:twoWindingsTransformer>
    </iidm:substation>
    <iidm:line id="L-1-2-1" name="Bus 1_Bus 2_1" r="10.252020000000002" x="31.300929999999997" b1="4.9905482041587904E-5" b2="4.9905482041587904E-5" voltageLevelId1="VL1" bus1="B1" connectableBus1="B1" voltageLevelId2="VL2" bus2="B2" connectableBus2="B2" selectedOperationalLimitsGroupIds1="DEFAULT" selectedOperationalLimitsGroupIds2="DEFAULT">
        <iidm:operationalLimitsGroup1 id="DEFAULT">
            <iidm:currentLimits detectionKind="HIGH" permanentLimit="711.3756050031097"/>
        </iidm:operationalLimitsGroup1>
        <iidm:operationalLimitsGroup2 id="DEFAULT">
            <iidm:currentLimits detectionKind="HIGH" permanentLimit="711.3756050031097"/>
        </iidm:operationalLimitsGroup2>
    </iidm:line>
    <iidm:line id="L-1-5-1" name="Bus 1_Bus 5_1" r="28.58187" x="117.98816" b1="4.6502835538752366E-5" b2="4.6502835538752366E-5" voltageLevelId1="VL1" bus1="B1" connectableBus1="B1" voltageLevelId2="VL5" bus2="B5" connectableBus2="B5" selectedOperationalLimitsGroupIds1="DEFAULT" selectedOperationalLimitsGroupIds2="DEFAULT">
        <iidm:operationalLimitsGroup1 id="DEFAULT">
            <iidm:currentLimits detectionKind="HIGH" permanentLimit="353.6909638343673"/>
        </iidm:operationalLimitsGroup1>
        <iidm:operationalLimitsGroup2 id="DEFAULT">
            <iidm:currentLimits detectionKind="HIGH" permanentLimit="353.6909638343673"/>
        </iidm:operationalLimitsGroup2>
    </iidm:line>
    <iidm:line id="L-2-3-1" name="Bus 2_Bus 3_1" r="24.857709999999997" x="104.72613000000001" b1="4.139886578449905E-5" b2="4.139886578449905E-5" voltageLevelId1="VL2" bus1="B2" connectableBus1="B2" voltageLevelId2="VL3" bus2="B3" connectableBus2="B3" selectedOperationalLimitsGroupIds1="DEFAULT" selectedOperationalLimitsGroupIds2="DEFAULT">
        <iidm:operationalLimitsGroup1 id="DEFAULT">
            <iidm:currentLimits detectionKind="HIGH" permanentLimit="354.21761540251237"/>
        </iidm:operationalLimitsGroup1>
        <iidm:operationalLimitsGroup2 id="DEFAULT">
            <iidm:currentLimits detectionKind="HIGH" permanentLimit="354.21761540251237"/>
        </iidm:operationalLimitsGroup2>
    </iidm:line>
    <iidm:line id="L-2-4-1" name="Bus 2_Bus 4_1" r="30.740190000000002" x="93.27328000000001" b1="3.534971644612477E-5" b2="3.534971644612477E-5" voltageLevelId1="VL2" bus1="B2" connectableBus1="B2" voltageLevelId2="VL4" bus2="B4" connectableBus2="B4" selectedOperationalLimitsGroupIds1="DEFAULT" selectedOperationalLimitsGroupIds2="DEFAULT">
        <iidm:operationalLimitsGroup1 id="DEFAULT">
            <iidm:currentLimits detectionKind="HIGH" permanentLimit="346.83091676069586"/>
        </iidm:operationalLimitsGroup1>
        <iidm:operationalLimitsGroup2 id="DEFAULT">
            <iidm:currentLimits detectionKind="HIGH" permanentLimit="346.83091676069586"/>
        </iidm:operationalLimitsGroup2>
    </iidm:line>
    <iidm:line id="L-2-5-1" name="Bus 2_Bus 5_1" r="30.126549999999998" x="91.98252000000001" b1="3.2136105860113426E-5" b2="3.2136105860113426E-5" voltageLevelId1="VL2" bus1="B2" connectableBus1="B2" voltageLevelId2="VL5" bus2="B5" connectableBus2="B5" selectedOperationalLimitsGroupIds1="DEFAULT" selectedOperationalLimitsGroupIds2="DEFAULT">
        <iidm:operationalLimitsGroup1 id="DEFAULT">
            <iidm:currentLimits detectionKind="HIGH" permanentLimit="333.00245410086785"/>
        </iidm:operationalLimitsGroup1>
        <iidm:operationalLimitsGroup2 id="DEFAULT">
            <iidm:currentLimits detectionKind="HIGH" permanentLimit="333.00245410086785"/>
        </iidm:operationalLimitsGroup2>
    </iidm:line>
    <iidm:line id="L-3-4-1" name="Bus 3_Bus 4_1" r="35.44829" x="90.47487" b1="3.270321361058601E-5" b2="3.270321361058601E-5" voltageLevelId1="VL3" bus1="B3" connectableBus1="B3" voltageLevelId2="VL4" bus2="B4" connectableBus2="B4" selectedOperationalLimitsGroupIds1="DEFAULT" selectedOperationalLimitsGroupIds2="DEFAULT">
        <iidm:operationalLimitsGroup1 id="DEFAULT">
            <iidm:currentLimits detectionKind="HIGH" permanentLimit="338.7152051709338"/>
        </iidm:operationalLimitsGroup1>
        <iidm:operationalLimitsGroup2 id="DEFAULT">
            <iidm:currentLimits detectionKind="HIGH" permanentLimit="338.7152051709338"/>
        </iidm:operationalLimitsGroup2>
    </iidm:line>
    <iidm:line id="L-4-5-1" name="Bus 4_Bus 5_1" r="7.06215" x="22.27619" b1="1.2098298676748583E-5" b2="1.2098298676748583E-5" voltageLevelId1="VL4" bus1="B4" connectableBus1="B4" voltageLevelId2="VL5" bus2="B5" connectableBus2="B5" selectedOperationalLimitsGroupIds1="DEFAULT" selectedOperationalLimitsGroupIds2="DEFAULT">
        <iidm:operationalLimitsGroup1 id="DEFAULT">
            <iidm:currentLimits detectionKind="HIGH" permanentLimit="415.18834670544203"/>
        </iidm:operationalLimitsGroup1>
        <iidm:operationalLimitsGroup2 id="DEFAULT">
            <iidm:currentLimits detectionKind="HIGH" permanentLimit="415.18834670544203"/>
        </iidm:operationalLimitsGroup2>
    </iidm:line>
    <iidm:area id="A1" name="IEEE 14 Bus Test Case" areaType="ControlArea" interchangeTarget="0.0">
        <iidm:voltageLevelRef id="VL1"/>
        <iidm:voltageLevelRef id="VL2"/>
        <iidm:voltageLevelRef id="VL3"/>
        <iidm:voltageLevelRef id="VL4"/>
        <iidm:voltageLevelRef id="VL5"/>
        <iidm:voltageLevelRef id="VL6"/>
        <iidm:voltageLevelRef id="VL7-8"/>
        <iidm:voltageLevelRef id="VL9"/>
    </iidm:area>
    <iidm:extension id="VL1">
        <slt:slackTerminal id="B1-G1"/>
    </iidm:extension>
</iidm:network>
